
OS:Version,
  {7af945fd-5bed-4ad9-bf5a-aee2ac927d68}, !- Handle
  2.1.1;                                  !- Version Identifier

OS:Facility,
  {cf302468-3453-4b1f-a1ed-b05a0da3cd5c}; ! Handle

OS:Material,
  {dd291baf-0dfd-4dc8-9861-b87566b1ebe7}, ! Handle
  1/2IN Gypsum,                           ! Name
  Smooth,                                 ! Roughness
  0.012699999999999999,                   ! Thickness
  0.16,                                   ! Conductivity
  784.89999999999998,                     ! Density
  830,                                    ! Specific Heat
  0.90000000000000002,                    ! Thermal Absorptance
  0.92000000000000004,                    ! Solar Absorptance
  0.92000000000000004;                    ! Visible Absorptance

OS:Material:NoMass,
  {cf43fad8-0e82-4f83-ae04-66d40df51c35}, ! Handle
  CP02 CARPET PAD,                        ! Name
  VeryRough,                              ! Roughness
  0.2165,                                 ! Thermal Resistance
  0.90000000000000002,                    ! Thermal Absorptance
  0.69999999999999996,                    ! Solar Absorptance
  0.80000000000000004;                    ! Visible Absorptance

OS:Rendering:Color,
  {ffe7c1fb-032c-4ec1-a24d-8d1e06bad54e}, ! Handle
  ASHRAE 189.1-2009 ClimateZone 4-8 MediumOffice Color, ! Name
  120.36,                                 ! Rendering Red Value
  236.64,                                 ! Rendering Green Value
  201.756;                                ! Rendering Blue Value

OS:RunPeriodControl:DaylightSavingTime,
  {693caa13-3e74-48ae-8045-a3a848c2807a}, ! Handle
  2nd Sunday in March,                    ! Start Date
  1st Sunday in November;                 ! End Date

OS:RunPeriodControl:SpecialDays,
  {01427c50-9f95-4617-88ea-a0e9186837e8}, ! Handle
  Christmas,                              ! Name
  December 25,                            ! Start Date
  1,                                      ! Duration
  Holiday;                                ! Special Day Type

OS:RunPeriodControl:SpecialDays,
  {4f7bd1ef-5d66-416c-b7cd-645da80eb8db}, ! Handle
  Columbus Day,                           ! Name
  2nd Monday in October,                  ! Start Date
  1,                                      ! Duration
  Holiday;                                ! Special Day Type

OS:RunPeriodControl:SpecialDays,
  {c89b3655-49ce-4e5d-97c9-b2095fd6db9c}, ! Handle
  Independence Day,                       ! Name
  July 4,                                 ! Start Date
  1,                                      ! Duration
  Holiday;                                ! Special Day Type

OS:RunPeriodControl:SpecialDays,
  {bc7c5297-77e3-4f10-bc89-f8f14a796e35}, ! Handle
  Labor Day,                              ! Name
  1st Monday in September,                ! Start Date
  1,                                      ! Duration
  Holiday;                                ! Special Day Type

OS:RunPeriodControl:SpecialDays,
  {d5293439-b4e0-42c4-ae8f-39daf0fa9e60}, ! Handle
  MLK Day,                                ! Name
  3rd Monday in January,                  ! Start Date
  1,                                      ! Duration
  Holiday;                                ! Special Day Type

OS:RunPeriodControl:SpecialDays,
  {5053f38e-2fe7-4c10-afbd-cc1965219b26}, ! Handle
  Memorial Day,                           ! Name
  Last Monday in May,                     ! Start Date
  1,                                      ! Duration
  Holiday;                                ! Special Day Type

OS:RunPeriodControl:SpecialDays,
  {246c2b99-5ff6-48d4-a556-71bb50fed76b}, ! Handle
  New Years Day,                          ! Name
  January 1,                              ! Start Date
  1,                                      ! Duration
  Holiday;                                ! Special Day Type

OS:RunPeriodControl:SpecialDays,
  {086bd7a3-d72e-44c0-acc9-70d041c4c2f5}, ! Handle
  Presidents Day,                         ! Name
  3rd Monday in February,                 ! Start Date
  1,                                      ! Duration
  Holiday;                                ! Special Day Type

OS:RunPeriodControl:SpecialDays,
  {675b176b-6342-4e06-9b76-f297a6b58c55}, ! Handle
  Thanksgiving,                           ! Name
  4th Thursday in November,               ! Start Date
  1,                                      ! Duration
  Holiday;                                ! Special Day Type

OS:RunPeriodControl:SpecialDays,
  {4d4d7ba3-4fd8-4f69-9194-9b7ffe61cc8d}, ! Handle
  Veterans Day,                           ! Name
  November 11,                            ! Start Date
  1,                                      ! Duration
  Holiday;                                ! Special Day Type

OS:ScheduleTypeLimits,
  {34a5bba4-16c2-43a7-83db-1840d06ef230}, ! Handle
  Fraction,                               ! Name
  0,                                      ! Lower Limit Value
  1,                                      ! Upper Limit Value
  CONTINUOUS;                             ! Numeric Type

OS:SimulationControl,
  {657ba578-29ab-439c-87b6-218865343bf2}, ! Handle
  No,                                     ! Do Zone Sizing Calculation
  No,                                     ! Do System Sizing Calculation
  No,                                     ! Do Plant Sizing Calculation
  No,                                     ! Run Simulation for Sizing Periods
  Yes,                                    ! Run Simulation for Weather File Run Periods
  0.040000000000000001,                   ! Loads Convergence Tolerance Value
  0.40000000000000002,                    ! Temperature Convergence Tolerance Value
  FullExterior,                           ! Solar Distribution
  25;                                     ! Maximum Number of Warmup Days

OS:SpaceType,
  {f4de87b0-5d1b-454c-9fc8-3f5a824ee533}, ! Handle
  ASHRAE 189.1-2009 ClimateZone 4-8 MediumOffice - 90.1-2010, ! Name
  ,                                       ! Default Construction Set Name
  {72f377bd-353d-4027-b5fd-9212b977a5da}, ! Default Schedule Set Name
  {ffe7c1fb-032c-4ec1-a24d-8d1e06bad54e}, ! Group Rendering Name
  {4c342fb0-f7a3-4b8a-8a14-a6db02f28286}; ! Design Specification Outdoor Air Object Name

OS:Timestep,
  {8a10f874-3682-42ca-98c2-f4b68d8deb26}, ! Handle
  4;                                      ! Number of Timesteps per Hour

OS:ScheduleTypeLimits,
  {d0f0b867-4833-4c23-97b4-2d2103a11327}, ! Handle
  ActivityLevel,                          ! Name
  0,                                      ! Lower Limit Value {BasedOnField A4}
  ,                                       ! Upper Limit Value {BasedOnField A4}
  Continuous,                             ! Numeric Type
  ActivityLevel;                          ! Unit Type

OS:ScheduleTypeLimits,
  {a1b286a2-734b-4de1-aca9-74651817c459}, ! Handle
  Temperature 2,                          ! Name
  ,                                       ! Lower Limit Value {BasedOnField A4}
  ,                                       ! Upper Limit Value {BasedOnField A4}
  Continuous,                             ! Numeric Type
  Temperature;                            ! Unit Type

OS:YearDescription,
  {809b5ab2-87e8-4866-bec9-d980e49142d1}, !- Handle
  ,                                       !- Calendar Year
  Sunday;                                 !- Day of Week for Start Day

OS:RadianceParameters,
  {2eb509d0-1a26-472a-bd1c-c61784b296ee}, !- Handle
  1,                                      !- Accumulated Rays per Record
  0,                                      !- Direct Threshold
  1,                                      !- Direct Certainty
  1,                                      !- Direct Jitter
  1,                                      !- Direct Pretest
  6,                                      !- Ambient Bounces VMX
  2,                                      !- Ambient Bounces DMX
  4050,                                   !- Ambient Divisions VMX
  512,                                    !- Ambient Divisions DMX
  256,                                    !- Ambient Supersamples
  0.001,                                  !- Limit Weight VMX
  0.001,                                  !- Limit Weight DMX
  500,                                    !- Klems Sampling Density
  146;                                    !- Sky Discretization Resolution

OS:Sizing:Parameters,
  {aa9efb9a-e1a2-4135-acf8-3bc07a2bf442}, !- Handle
  1.25,                                   !- Heating Sizing Factor
  1.15;                                   !- Cooling Sizing Factor

OS:ProgramControl,
  {dd027b9b-797f-43a2-9fe4-fed2ea0451e2}; !- Handle

OS:OutputControl:ReportingTolerances,
  {f94dd277-bb50-4652-a96e-e789a6ecac2e}, !- Handle
  1,                                      !- Tolerance for Time Heating Setpoint Not Met {deltaC}
  1;                                      !- Tolerance for Time Cooling Setpoint Not Met {deltaC}

OS:ConvergenceLimits,
  {9b0de7b4-4edd-4363-a6e3-f05196839ae4}; !- Handle

OS:ShadowCalculation,
  {d5c8db6b-6209-4bc8-a8fa-13de55f73e26}, !- Handle
  7,                                      !- Calculation Frequency
  15000;                                  !- Maximum Figures in Shadow Overlap Calculations

OS:SurfaceConvectionAlgorithm:Inside,
  {7f7c8376-984d-48d1-a3f1-0033019201c6}, !- Handle
  TARP;                                   !- Algorithm

OS:SurfaceConvectionAlgorithm:Outside,
  {35271dd5-67cf-4be8-b272-44d6ce590f3c}, !- Handle
  DOE-2;                                  !- Algorithm

OS:HeatBalanceAlgorithm,
  {4193a26b-61e2-424e-bdee-ab6cf9b298bc}, !- Handle
  ConductionTransferFunction,             !- Algorithm
  200;                                    !- Surface Temperature Upper Limit {C}

OS:ZoneAirHeatBalanceAlgorithm,
  {72cc2b96-3417-49d7-b44b-a8cc30c0fa37}, !- Handle
  AnalyticalSolution;                     !- Algorithm

OS:ZoneAirContaminantBalance,
  {80be4605-7388-4a32-9882-500939222f03}; !- Handle

OS:ZoneCapacitanceMultiplier:ResearchSpecial,
  {bf7c02d2-6a17-4e53-8904-917d4386405e}, !- Handle
  ,                                       !- Temperature Capacity Multiplier
  ,                                       !- Humidity Capacity Multiplier
  ;                                       !- Carbon Dioxide Capacity Multiplier

OS:RunPeriod,
  {b03d2804-4308-438a-a841-e83e586f739e}, !- Handle
  Run Period 1,                           !- Name
  1,                                      !- Begin Month
  1,                                      !- Begin Day of Month
  12,                                     !- End Month
  31,                                     !- End Day of Month
  ,                                       !- Use Weather File Holidays and Special Days
  ,                                       !- Use Weather File Daylight Saving Period
  ,                                       !- Apply Weekend Holiday Rule
  ,                                       !- Use Weather File Rain Indicators
  ,                                       !- Use Weather File Snow Indicators
  ;                                       !- Number of Times Runperiod to be Repeated

OS:Site,
  {80df6887-aaf0-4943-9e5d-26510ac1b1f8}, !- Handle
  Chula Vista Brown Field Naas_CA_USA,    !- Name
  32.58,                                  !- Latitude {deg}
  -116.98,                                !- Longitude {deg}
  -8,                                     !- Time Zone {hr}
  159,                                    !- Elevation {m}
  ;                                       !- Terrain

OS:ClimateZones,
  {03734246-7f0f-4b71-9186-8d79c77ae2e6}, !- Handle
  ,                                       !- Active Institution
  ,                                       !- Active Year
  ASHRAE,                                 !- Climate Zone Institution Name 1
  ANSI/ASHRAE Standard 169,               !- Climate Zone Document Name 1
  2006,                                   !- Climate Zone Document Year 1
  3C,                                     !- Climate Zone Value 1
  CEC,                                    !- Climate Zone Institution Name 2
  California Climate Zone Descriptions,   !- Climate Zone Document Name 2
  1995,                                   !- Climate Zone Document Year 2
  ;                                       !- Climate Zone Value 2

OS:LifeCycleCost:Parameters,
  {25ee80aa-2927-4ab3-b84e-d3b5e76080fb}, !- Handle
  FEMP,                                   !- Analysis Type
  ,                                       !- Discounting Convention
  ,                                       !- Inflation Approach
  ,                                       !- Real Discount Rate
  ,                                       !- Nominal Discount Rate
  ,                                       !- Inflation
  ,                                       !- Base Date Month
  ,                                       !- Base Date Year
  ,                                       !- Service Date Month
  ,                                       !- Service Date Year
  ,                                       !- Length of Study Period in Years
  ,                                       !- Tax Rate
  ,                                       !- Depreciation Method
  Yes;                                    !- Use NIST Fuel Escalation Rates

OS:StandardsInformation:Material,
  {f5748ab2-e7e2-4d9e-8feb-eac0684d0eb8}, !- Handle
  {cf43fad8-0e82-4f83-ae04-66d40df51c35}; !- Material Name

OS:StandardsInformation:Material,
  {a160957d-6cda-4085-b6cf-370e690319b8}, !- Handle
  {dd291baf-0dfd-4dc8-9861-b87566b1ebe7}; !- Material Name

OS:WeatherFile,
  {1dd1c9f9-b013-4915-bb89-3e7aeffa32f1}, !- Handle
  Chula Vista Brown Field Naas,           !- City
  CA,                                     !- State Province Region
  USA,                                    !- Country
  TMY3,                                   !- Data Source
  722904,                                 !- WMO Number
  32.58,                                  !- Latitude {deg}
  -116.98,                                !- Longitude {deg}
  -8,                                     !- Time Zone {hr}
  159,                                    !- Elevation {m}
  file:files/USA_CA_Chula.Vista-Brown.Field.Muni.AP.722904_TMY3.epw, !- Url
  27C50816;                               !- Checksum

OS:Site:WaterMainsTemperature,
  {52bf9db6-98c2-426d-b2ca-fbb59edd0ddd}, !- Handle
  Correlation,                            !- Calculation Method
  ,                                       !- Temperature Schedule Name
  16,                                     !- Annual Average Outdoor Air Temperature {C}
  7.1;                                    !- Maximum Difference In Monthly Average Outdoor Air Temperatures {deltaC}

OS:SizingPeriod:DesignDay,
  {37ba3f43-2775-473d-85ed-3039a47d52c8}, !- Handle
  Chula Vista Brown Field Naas Ann Clg .4% Condns WB=>MDB, !- Name
  27.6,                                   !- Maximum Dry-Bulb Temperature {C}
  8.9,                                    !- Daily Dry-Bulb Temperature Range {deltaC}
  21.8,                                   !- Humidity Indicating Conditions at Maximum Dry-Bulb
  99429,                                  !- Barometric Pressure {Pa}
  4.1,                                    !- Wind Speed {m/s}
  280,                                    !- Wind Direction {deg}
  0,                                      !- Sky Clearness
  0,                                      !- Rain Indicator
  0,                                      !- Snow Indicator
  21,                                     !- Day of Month
  8,                                      !- Month
  SummerDesignDay,                        !- Day Type
  0,                                      !- Daylight Saving Time Indicator
  Wetbulb,                                !- Humidity Indicating Type
  ,                                       !- Humidity Indicating Day Schedule Name
  DefaultMultipliers,                     !- Dry-Bulb Temperature Range Modifier Type
  ,                                       !- Dry-Bulb Temperature Range Modifier Schedule Name
  ASHRAETau,                              !- Solar Model Indicator
  ,                                       !- Beam Solar Day Schedule Name
  ,                                       !- Diffuse Solar Day Schedule Name
  0.412,                                  !- ASHRAE Taub {dimensionless}
  2.276;                                  !- ASHRAE Taud {dimensionless}

OS:SizingPeriod:DesignDay,
  {ada357cf-66cf-42f1-9216-7d98e3bdcac2}, !- Handle
  Chula Vista Brown Field Naas Ann Clg .4% Condns DB=>MWB, !- Name
  31.3,                                   !- Maximum Dry-Bulb Temperature {C}
  8.9,                                    !- Daily Dry-Bulb Temperature Range {deltaC}
  18.4,                                   !- Humidity Indicating Conditions at Maximum Dry-Bulb
  99429,                                  !- Barometric Pressure {Pa}
  4.1,                                    !- Wind Speed {m/s}
  280,                                    !- Wind Direction {deg}
  0,                                      !- Sky Clearness
  0,                                      !- Rain Indicator
  0,                                      !- Snow Indicator
  21,                                     !- Day of Month
  8,                                      !- Month
  SummerDesignDay,                        !- Day Type
  0,                                      !- Daylight Saving Time Indicator
  Wetbulb,                                !- Humidity Indicating Type
  ,                                       !- Humidity Indicating Day Schedule Name
  DefaultMultipliers,                     !- Dry-Bulb Temperature Range Modifier Type
  ,                                       !- Dry-Bulb Temperature Range Modifier Schedule Name
  ASHRAETau,                              !- Solar Model Indicator
  ,                                       !- Beam Solar Day Schedule Name
  ,                                       !- Diffuse Solar Day Schedule Name
  0.412,                                  !- ASHRAE Taub {dimensionless}
  2.276;                                  !- ASHRAE Taud {dimensionless}

OS:SizingPeriod:DesignDay,
  {8444575d-d60d-4dc0-bd40-9c87e515c645}, !- Handle
  Chula Vista Brown Field Naas Ann Htg 99.6% Condns DB, !- Name
  3.8,                                    !- Maximum Dry-Bulb Temperature {C}
  0,                                      !- Daily Dry-Bulb Temperature Range {deltaC}
  3.8,                                    !- Humidity Indicating Conditions at Maximum Dry-Bulb
  99429,                                  !- Barometric Pressure {Pa}
  3,                                      !- Wind Speed {m/s}
  120,                                    !- Wind Direction {deg}
  0,                                      !- Sky Clearness
  0,                                      !- Rain Indicator
  0,                                      !- Snow Indicator
  21,                                     !- Day of Month
  12,                                     !- Month
  WinterDesignDay,                        !- Day Type
  0,                                      !- Daylight Saving Time Indicator
  Wetbulb,                                !- Humidity Indicating Type
  ,                                       !- Humidity Indicating Day Schedule Name
  DefaultMultipliers,                     !- Dry-Bulb Temperature Range Modifier Type
  ,                                       !- Dry-Bulb Temperature Range Modifier Schedule Name
  ASHRAEClearSky;                         !- Solar Model Indicator

OS:SpaceType,
  {eb48dc9e-647d-4c73-b655-a0257d53a046}, !- Handle
  Office WholeBuilding - Sm Office - 90.1-2010, !- Name
  ,                                       !- Default Construction Set Name
  {daba5412-66eb-42f3-a000-f88b09c766ec}, !- Default Schedule Set Name
  {918ef2f1-86b0-4bee-9006-783b45eaad83}, !- Group Rendering Name
  {8425718d-d5f0-4706-b7c4-2adb0c2f92c1}, !- Design Specification Outdoor Air Object Name
  Office,                                 !- Standards Building Type
  WholeBuilding - Sm Office;              !- Standards Space Type

OS:Rendering:Color,
  {918ef2f1-86b0-4bee-9006-783b45eaad83}, !- Handle
  Rendering Color 1,                      !- Name
  120,                                    !- Rendering Red Value
  230,                                    !- Rendering Green Value
  199;                                    !- Rendering Blue Value

OS:Building,
  {43958a96-81ab-4f40-9b6d-c508f5e9f67a}, !- Handle
  90.1-2010|SmallOffice,                  !- Name
  ,                                       !- Building Sector Type
  -0,                                     !- North Axis {deg}
  ,                                       !- Nominal Floor to Floor Height {m}
  {f4de87b0-5d1b-454c-9fc8-3f5a824ee533}, !- Space Type Name
  {64245118-d584-40cd-895f-4217579080ff}, !- Default Construction Set Name
  ,                                       !- Default Schedule Set Name
  ,                                       !- Standards Number of Stories
  ,                                       !- Standards Number of Above Ground Stories
  Office;                                 !- Standards Building Type

OS:BuildingStory,
  {96b3a16f-b583-4b5d-8760-03cb13f211da}, !- Handle
  Story Ground,                           !- Name
  0,                                      !- Nominal Z Coordinate {m}
  3.048,                                  !- Nominal Floor to Floor Height {m}
  ,                                       !- Default Construction Set Name
  ,                                       !- Default Schedule Set Name
  ;                                       !- Group Rendering Name

OS:Space,
  {360caea6-224f-4831-b1a6-8c530bbf6e78}, !- Handle
  Office WholeBuilding - Sm Office A end_a - Story Ground, !- Name
  {eb48dc9e-647d-4c73-b655-a0257d53a046}, !- Space Type Name
  ,                                       !- Default Construction Set Name
  ,                                       !- Default Schedule Set Name
  -0,                                     !- Direction of Relative North {deg}
  -24.9554709160136,                      !- X Origin {m}
  -16.6369806106757,                      !- Y Origin {m}
  0,                                      !- Z Origin {m}
  {96b3a16f-b583-4b5d-8760-03cb13f211da}, !- Building Story Name
  {87e87fc1-84f2-453e-940a-b1b341194e5d}; !- Thermal Zone Name

OS:Surface,
  {173e1e1f-0841-4591-bd00-47282378b4b6}, !- Handle
  Surface 1,                              !- Name
  Floor,                                  !- Surface Type
  ,                                       !- Construction Name
  {360caea6-224f-4831-b1a6-8c530bbf6e78}, !- Space Name
  Ground,                                 !- Outside Boundary Condition
  ,                                       !- Outside Boundary Condition Object
  NoSun,                                  !- Sun Exposure
  NoWind,                                 !- Wind Exposure
  ,                                       !- View Factor to Ground
  ,                                       !- Number of Vertices
  -1.06581410364015e-014, 2.48689957516035e-014, 0, !- X,Y,Z Vertex 1 {m}
  -1.06581410364015e-014, 4.57200000000002, 0, !- X,Y,Z Vertex 2 {m}
  4.57199999999999, 4.57200000000002, 0,  !- X,Y,Z Vertex 3 {m}
  4.57199999999999, 2.48689957516035e-014, 0; !- X,Y,Z Vertex 4 {m}

OS:Surface,
  {17aea9a4-7dd5-4b8c-bb7a-afd616db3e54}, !- Handle
  Surface 2,                              !- Name
  Wall,                                   !- Surface Type
  ,                                       !- Construction Name
  {360caea6-224f-4831-b1a6-8c530bbf6e78}, !- Space Name
  Outdoors,                               !- Outside Boundary Condition
  ,                                       !- Outside Boundary Condition Object
  SunExposed,                             !- Sun Exposure
  WindExposed,                            !- Wind Exposure
  ,                                       !- View Factor to Ground
  ,                                       !- Number of Vertices
  -1.06581410364015e-014, 4.57200000000002, 3.048, !- X,Y,Z Vertex 1 {m}
  -1.06581410364015e-014, 4.57200000000002, 0, !- X,Y,Z Vertex 2 {m}
  -1.06581410364015e-014, 2.48689957516035e-014, 0, !- X,Y,Z Vertex 3 {m}
  -1.06581410364015e-014, 2.48689957516035e-014, 3.048; !- X,Y,Z Vertex 4 {m}

OS:Surface,
  {26177e38-8980-4d75-b2a6-1ebbbf135aa6}, !- Handle
  Surface 3,                              !- Name
  Wall,                                   !- Surface Type
  ,                                       !- Construction Name
  {360caea6-224f-4831-b1a6-8c530bbf6e78}, !- Space Name
  Surface,                                !- Outside Boundary Condition
  {3e6fd7cd-91a4-4f4e-8784-5ade01c2f451}, !- Outside Boundary Condition Object
  NoSun,                                  !- Sun Exposure
  NoWind,                                 !- Wind Exposure
  ,                                       !- View Factor to Ground
  ,                                       !- Number of Vertices
  4.57199999999999, 4.57200000000002, 3.048, !- X,Y,Z Vertex 1 {m}
  4.57199999999999, 4.57200000000002, 0,  !- X,Y,Z Vertex 2 {m}
  -1.06581410364015e-014, 4.57200000000002, 0, !- X,Y,Z Vertex 3 {m}
  -1.06581410364015e-014, 4.57200000000002, 3.048; !- X,Y,Z Vertex 4 {m}

OS:Surface,
  {f18b903c-09f2-4bee-b0c3-e10542744af7}, !- Handle
  Surface 4,                              !- Name
  Wall,                                   !- Surface Type
  ,                                       !- Construction Name
  {360caea6-224f-4831-b1a6-8c530bbf6e78}, !- Space Name
  Surface,                                !- Outside Boundary Condition
  {967ec7cb-7aee-4536-849f-09da4f162f09}, !- Outside Boundary Condition Object
  NoSun,                                  !- Sun Exposure
  NoWind,                                 !- Wind Exposure
  ,                                       !- View Factor to Ground
  ,                                       !- Number of Vertices
  4.57199999999999, 2.48689957516035e-014, 3.048, !- X,Y,Z Vertex 1 {m}
  4.57199999999999, 2.48689957516035e-014, 0, !- X,Y,Z Vertex 2 {m}
  4.57199999999999, 4.57200000000002, 0,  !- X,Y,Z Vertex 3 {m}
  4.57199999999999, 4.57200000000002, 3.048; !- X,Y,Z Vertex 4 {m}

OS:Surface,
  {4851a648-0514-46eb-a2d3-75a2293c0885}, !- Handle
  Surface 5,                              !- Name
  Wall,                                   !- Surface Type
  ,                                       !- Construction Name
  {360caea6-224f-4831-b1a6-8c530bbf6e78}, !- Space Name
  Outdoors,                               !- Outside Boundary Condition
  ,                                       !- Outside Boundary Condition Object
  SunExposed,                             !- Sun Exposure
  WindExposed,                            !- Wind Exposure
  ,                                       !- View Factor to Ground
  ,                                       !- Number of Vertices
  -1.06581410364015e-014, 2.48689957516035e-014, 3.048, !- X,Y,Z Vertex 1 {m}
  -1.06581410364015e-014, 2.48689957516035e-014, 0, !- X,Y,Z Vertex 2 {m}
  4.57199999999999, 2.48689957516035e-014, 0, !- X,Y,Z Vertex 3 {m}
  4.57199999999999, 2.48689957516035e-014, 3.048; !- X,Y,Z Vertex 4 {m}

OS:Surface,
  {d2c8f662-923b-4dc3-bccf-2a5c1349b420}, !- Handle
  Surface 6,                              !- Name
  RoofCeiling,                            !- Surface Type
  ,                                       !- Construction Name
  {360caea6-224f-4831-b1a6-8c530bbf6e78}, !- Space Name
  Surface,                                !- Outside Boundary Condition
  {476b2833-a6b6-4e88-ae29-b1c36b39a50e}, !- Outside Boundary Condition Object
  NoSun,                                  !- Sun Exposure
  NoWind,                                 !- Wind Exposure
  ,                                       !- View Factor to Ground
  ,                                       !- Number of Vertices
  4.57199999999999, 2.48689957516035e-014, 3.048, !- X,Y,Z Vertex 1 {m}
  4.57199999999999, 4.57200000000002, 3.048, !- X,Y,Z Vertex 2 {m}
  -1.06581410364015e-014, 4.57200000000002, 3.048, !- X,Y,Z Vertex 3 {m}
  -1.06581410364015e-014, 2.48689957516035e-014, 3.048; !- X,Y,Z Vertex 4 {m}

OS:ThermalZone,
  {87e87fc1-84f2-453e-940a-b1b341194e5d}, !- Handle
  Zone Office WholeBuilding - Sm Office A end_a - Story Ground, !- Name
  1,                                      !- Multiplier
  ,                                       !- Ceiling Height {m}
  ,                                       !- Volume {m3}
  ,                                       !- Floor Area {m2}
  ,                                       !- Zone Inside Convection Algorithm
  ,                                       !- Zone Outside Convection Algorithm
  ,                                       !- Zone Conditioning Equipment List Name
  {ea661e36-369c-45f3-a56a-b2403833eaac}, !- Zone Air Inlet Port List
  {9e30d828-d2f7-4ab4-ac4f-61c39dc8754b}, !- Zone Air Exhaust Port List
  {3921ad23-b065-4d72-b762-c88363a905ce}, !- Zone Air Node Name
  ,                                       !- Zone Return Air Node Name
  ,                                       !- Primary Daylighting Control Name
  ,                                       !- Fraction of Zone Controlled by Primary Daylighting Control